Global frequency set at 1000000000000 ticks per second
src/base/statistics.hh:279: warn: One of the stats is a legacy stat. Legacy stat is a stat that does not belong to any statistics::Group. Legacy stat is deprecated.
src/base/remote_gdb.cc:418: warn: Sockets disabled, not accepting gdb connections
[Ramulator::DDR5-VRR] nVRR: 383
[Ramulator::DDR5-VRR] nRFM1: 471
[Ramulator::DDR5-VRR] nRFMsb: 416
gem5 Simulator System.  https://www.gem5.org
gem5 is copyrighted software; use the --copyright option for details.

gem5 version 24.0.0.0
gem5 compiled Apr  3 2026 05:38:53
gem5 started Apr  3 2026 06:52:35
gem5 executing on fd82b80045a1, pid 8
command line: /app/build/X86/gem5.opt /app/configs/deprecated/example/se.py --num-cpu=3 --cpu-type=O3CPU --sys-clock=1GHz --cpu-clock=3GHz --mem-type=Ramulator2 --mem-size=8GB --caches --l2cache --num-l2caches=1 --l1d_size=32kB --l1i_size=32kB --l2_size=4MB --l1d_assoc=8 --l1i_assoc=8 --l2_assoc=16 --cacheline_size=64 --ramulator-config=/app/configs/rhsc/ramulator/rfm.yaml --m5-outdir=/app/results/rfm/noise/tmpfs/tmp_t20000_100b_p0x00_r260d_rfm '--cmd=/app/attack-binaries/rfm_sender;/app/attack-binaries/rfm_receiver;/app/attack-binaries/mr_noise' '--options=20000 100 0x00;20000 100 0x00;24000000.0 32 260'

info: Standard input is not a terminal, disabling listeners.
Namespace(abs_max_tick=18446744073709551615, arm_iset='arm', at_instruction=False, bench=None, bp_type=None, cacheline_size=64, caches=True, checker=False, checkpoint_at_end=False, checkpoint_dir=None, checkpoint_restore=None, chroot=None, cmd='/app/attack-binaries/rfm_sender;/app/attack-binaries/rfm_receiver;/app/attack-binaries/mr_noise', cpu_clock='3GHz', cpu_type='O3CPU', data_trace_file='', dist=False, dist_rank=0, dist_server_name='127.0.0.1', dist_server_port=2200, dist_size=0, dist_sync_on_pseudo_op=False, dist_sync_repeat='0us', dist_sync_start='5200000000000t', elastic_trace_en=False, enable_dram_powerdown=False, env='', errout='', ethernet_linkdelay='10us', ethernet_linkspeed='10Gbps', external_memory_system=None, fast_forward=None, indirect_bp_type=None, init_param=0, initialize_only=False, input='', inst_trace_file='', interp_dir=None, is_switch=False, l1d_assoc=8, l1d_hwp_type=None, l1d_size='32kB', l1i_assoc=8, l1i_hwp_type=None, l1i_size='32kB', l2_assoc=16, l2_hwp_type=None, l2_size='4MB', l2cache=True, l3_assoc=16, l3_size='16MB', l3cache=False, list_bp_types=None, list_cpu_types=None, list_hwp_types=None, list_indirect_bp_types=None, list_mem_types=None, list_rp_types=None, m5_outdir='/app/results/rfm/noise/tmpfs/tmp_t20000_100b_p0x00_r260d_rfm', max_checkpoints=5, maxinsts=None, maxtime=None, mem_channels=1, mem_channels_intlv=0, mem_ranks=None, mem_size='8GB', mem_type='Ramulator2', memchecker=False, num_cpus=3, num_dirs=1, num_l2caches=1, num_l3caches=1, num_work_ids=None, options='20000 100 0x00;20000 100 0x00;24000000.0 32 260', output='', output_dir=None, override_vendor_string=None, param=[], prog_interval=None, ramulator_config='/app/configs/rhsc/ramulator/rfm.yaml', redirects=[], rel_max_tick=None, repeat_switch=None, restore_simpoint_checkpoint=False, restore_with_cpu='X86AtomicSimpleCPU', ruby=False, simpoint=False, simpoint_interval=10000000, simpoint_profile=False, smt=False, spec_input='ref', standard_switch=None, stats_root=[], sys_clock='1GHz', sys_voltage='1.0V', take_checkpoints=None, take_simpoint_checkpoints=None, tlm_memory=None, wait_gdb=False, warmup_insts=None, work_begin_checkpoint_count=None, work_begin_cpu_id_exit=None, work_begin_exit_count=None, work_cpus_checkpoint_count=None, work_end_checkpoint_count=None, work_end_exit_count=None, work_item_id=None)
Memory TYPE::  Ramulator2
Ramulator2 system configuration file = /app/configs/rhsc/ramulator/rfm.yaml
Ramulator2 mem_ctrl is connected 

/app/results/rfm/noise/tmpfs/tmp_t20000_100b_p0x00_r260d_rfm
**** REAL SIMULATION ****
warn: The se.py script is deprecated. It will be removed in future releases of  gem5.
warn: No dot file generated. Please install pydot to generate the dot file and pdf.
src/sim/simulate.cc:199: info: Entering event queue @ 0.  Starting simulation...
src/sim/mem_state.cc:448: info: Increasing stack size by one page.
src/sim/mem_state.cc:448: info: Increasing stack size by one page.
src/sim/mem_state.cc:448: info: Increasing stack size by one page.
src/sim/syscall_emul.cc:74: warn: ignoring syscall mprotect(...)
src/sim/syscall_emul.cc:74: warn: ignoring syscall mprotect(...)
src/sim/syscall_emul.cc:74: warn: ignoring syscall mprotect(...)
[SEND] txn_period: 20000 msg_bytes: 100 data_pattern: 0
[RECV] Timeout: 19500
[SEND] Timeout: 19500
[MRNOISE] Access Rate (ns): 260
[SEND] Binary: 00000000000000000000000000000000000000000000000000000000000000000000000000000000000000000000000000000000000000000000000000000000000000000000000000000000000000000000000000000000000000000000000000000000000000000000000000000000000000000000000000000000000000000000000000000000000000000000000000000000000000000000000000000000000000000000000000000000000000000000000000000000000000000000000000000000000000000000000000000000000000000000000000000000000000000000000000000000000000000000000000000000000000000000000000000000000000000000000000000000000000000000000000000000000000000000000000000000000000000000000000000000000000000000000000000000000000000000000000000000000000000000000000000000000000000000000000000000000000000000000000000000000000000000000000000000000000000000000000000000000000000000000000000000
[SEND] End of first window: 240015
[RECV] End of first window: 240015
[SEND] MinSleepAssert: 19974
[RECV] MinSleepAssert: -768
[RECV] Received in 16019506 ns
[RECV] Binary: 00010100000000001000101000000010000100010101000100001001010000000010100000100000100101000010000001010000010010000000000100000101001000000000001010100010000100000000100000101000001010000010100101000100101001000010001010100100000101001001010100000001000101001010001010100010100001001001010001010010000010100100001010001001010000000000000000101000101001010010010000000000000000101000000010010000000000100101000000001010000100101000001000010010000100010101000000101010000010010000010010010100101000101010000000100100100000010001000110010010100010000101000101010001001010000100010110010101000101100001000100001010101010001010100101001000000010010000011000100100001001000011100010100000100001010010000100100000000101010100000101010001010000000001001001001010100000100100100000010010100100000000000100000010
[RECV] Error rate: 0.261250
[MRNOISE] I'm out at 20236225
Frontend:
  impl: GEM5

MemorySystem:
  impl: BHDRAMSystem
  total_num_other_requests: 0
  total_num_write_requests: 0
  total_num_read_requests: 205404
  memory_system_cycles: 32389976

  DRAM:
    impl: DDR5-VRR
    total_vrr_cycles_rank1: 0
    total_rfm_cycles_rank1: 0
    total_vrr_cycles_rank0: 0
    total_rfm_cycles_rank0: 0
  AddrMapper:
    impl: RoBaRaCoCh_with_rit


  BHDRAMController:
    impl: BHDRAMController
    id: Channel 0
    controller_num_row_conflicts: 103898
    controller_num_row_misses: 110182
    controller_num_row_hits: 95222
    BHScheduler:
      impl: BHScheduler
    RefreshManager:
      impl: DelayedRefresh


    RowPolicy:
      impl: ClosedRowPolicy
      num_close_reqs: 734


    ControllerPlugin:
      impl: RFMManager
      rfm_counter: 2721



Exiting @ tick 20243734668 because exiting with last active thread context
